<flow><step>Client</step><step>API</step><step>Laravel</step><step>PostgreSQL</step></flow>